#p opt=ModRedundant b3lyp/6-31g(d) 

Biphenyl change dihedral

0 1
 C                 -4.41584965    0.94482757    0.00000000
 C                 -3.02068965    0.94482757    0.00000000
 C                 -2.32315165    2.15257857    0.00000000
 C                 -3.02080565    3.36108757   -0.00119900
 C                 -4.41563065    3.36100957   -0.00167800
 C                 -5.11323165    2.15280357   -0.00068200
 H                 -4.96560865   -0.00748943    0.00045000
 H                 -2.47118165   -0.00768543    0.00131500
 H                 -2.47060565    4.31323057   -0.00125800
 H                 -4.96575265    4.31329057   -0.00263100
 H                 -6.21283565    2.15298657   -0.00086200
 C                 -0.78315191    2.15269060    0.00088786
 C                 -0.08606526    3.36121931    0.00088734
 C                 -0.08548693    0.94501548    0.00335961
 C                  1.30876256    3.36175187    0.00267704
 H                 -0.63630428    4.31325796   -0.00061165
 C                  1.30993941    0.94551682    0.00463341
 H                 -0.63486990   -0.00759907    0.00399419
 C                  2.00679196    2.15379382    0.00415373
 H                  1.85833456    4.31416964    0.00249700
 H                  1.85980667   -0.00681651    0.00652304
 H                  3.10655225    2.15452197    0.00514924

D	2	3	12	13	=DIH.0	B
D	2	3	12	13	F
	
